   31

C      -0.953717    1.484268   -0.046778
C       0.210282    2.208548    0.264594
N       1.257265    1.332690    0.557411
C       1.488500   -1.212572    0.626266
C       0.752487   -2.406834    0.432961
C      -0.634960   -2.366304    0.063178
C      -1.314307   -1.139158   -0.124724
C      -0.589035    0.078038    0.061945
C       0.805798    0.017769    0.439487
C      -2.315812    2.056818   -0.395122
H       0.375277    3.308200    0.311891
H       2.216214    1.615397    0.797715
H      -2.393118   -1.149128   -0.413264
O      -1.363811   -3.534812   -0.127173
H       1.254335   -3.397528    0.568757
H       2.567939   -1.248868    0.913717
H      -0.770811   -4.297137    0.051640
C      -4.576736    3.202157   -2.159762
C      -2.235553    3.180583   -1.456624
C      -3.241024    5.188560   -2.347036
N      -3.474971    3.969149   -1.566850
H      -4.779585    2.275631   -1.559519
H      -5.510372    3.828359   -2.154055
H      -4.372358    2.890908   -3.236311
H      -2.409941    5.785126   -1.880378
H      -2.961664    4.983155   -3.431507
H      -4.170358    5.821014   -2.345079
H      -1.422166    3.897866   -1.156729
H      -1.919280    2.735371   -2.456479
H      -2.974634    1.220757   -0.757047
H      -2.818524    2.480474    0.521351
