30
 generated by VMD
 C        -1.009434        1.714223        0.003444
 C         0.342616        2.434253        0.003994
 N         1.412376        1.426123        0.017684
 C         1.222847       -1.194137       -0.007006
 C         0.315477       -2.268847       -0.014986
 C        -1.060863       -2.038436       -0.006366
 C        -1.544833       -0.723707       -0.001766
 C        -0.633543        0.362433       -0.000786
 C         0.766886        0.132323        0.001594
 C        -2.391245        2.297821        0.006729
 H         0.335767        3.434354        0.006674
 H         2.411767        1.453223        0.040184
 H        -2.531794       -0.562367        0.000674
 H        -1.695914       -2.810716       -0.003356
 H         0.654027       -3.209776       -0.027406
 H         2.205746       -1.375967       -0.007446
 C        -3.665034        2.349610       -2.052859
 C        -2.441543        3.567132       -0.790966
 C        -3.251523        4.749170       -2.377908
 N        -3.390694        3.653167       -1.363310
 H        -3.932511        1.578802       -1.298493
 H        -4.515699        2.444636       -2.762019
 H        -2.775427        1.988042       -2.612979
 H        -3.026045        5.707197       -1.862057
 H        -2.419732        4.536143       -3.083820
 H        -4.186749        4.885901       -2.963163
 H        -3.028582        1.635999       -0.387979
 H        -2.664407        2.490746        0.949153
 H        -2.439647        4.406730       -0.247760
 H        -1.748851        3.641913       -1.508312
