   30

C      -0.939644    1.474131   -0.024367
C       0.207884    2.211944    0.310155
N       1.269411    1.344853    0.587671
C       1.561444   -1.191669    0.589472
C       0.854471   -2.395488    0.351661
C      -0.529022   -2.377329   -0.027805
C      -1.233833   -1.160891   -0.177930
C      -0.548246    0.072721    0.049017
C       0.846424    0.027275    0.433561
C      -2.308886    2.032242   -0.371085
H       0.355898    3.312744    0.384316
H       2.220557    1.641845    0.839434
H      -2.312557   -1.170202   -0.472436
H      -1.058492   -3.345686   -0.203014
H       1.381811   -3.375211    0.462737
H       2.639498   -1.200883    0.889446
C      -4.556281    3.122982   -2.183922
C      -2.235843    3.169265   -1.419564
C      -3.277488    5.148152   -2.336314
N      -3.494553    3.921569   -1.560799
H      -4.755559    2.197124   -1.582147
H      -5.506398    3.723889   -2.213549
H      -4.307477    2.807950   -3.250212
H      -2.481624    5.772877   -1.845983
H      -2.957814    4.951839   -3.411542
H      -4.226495    5.750563   -2.365596
H      -2.952750    1.190739   -0.747591
H      -2.822439    2.435542    0.548596
H      -1.452457    3.907629   -1.090692
H      -1.874792    2.744230   -2.413629
